LTspice 24.0.12 for Windows
Circuit: * D:\Cosas del Colegio\Mis cosas\Facu\UTN 2025\TC2\JupyterNotebook\tareaSemanal_2\Draft1.asc
Start Time: Tue Apr 29 16:13:06 2025
solver = Normal
Maximum thread count: 8
tnom = 27
temp = 27
method = modified trap
Direct Newton iteration for .op point succeeded.
Ignoring empty pin current: Ix(u2:1)
Ignoring empty pin current: Ix(u2:2)
Ignoring empty pin current: Ix(u2:1)
Ignoring empty pin current: Ix(u2:2)
Total elapsed time: 0.029 seconds.

