LTspice 24.0.12 for Windows
Circuit: * D:\Cosas del Colegio\Mis cosas\Facu\UTN 2025\TC2\JupyterNotebook\tareaSemanal_2\simulacion.asc
Start Time: Mon Apr 21 15:19:31 2025
solver = Normal
Maximum thread count: 8
tnom = 27
temp = 27
method = modified trap
Direct Newton iteration for .op point succeeded.
Ignoring empty pin current: Ix(u1:1)
Ignoring empty pin current: Ix(u1:2)
Ignoring empty pin current: Ix(u2:1)
Ignoring empty pin current: Ix(u2:2)
Ignoring empty pin current: Ix(u1:1)
Ignoring empty pin current: Ix(u1:2)
Ignoring empty pin current: Ix(u2:1)
Ignoring empty pin current: Ix(u2:2)
Total elapsed time: 0.049 seconds.

