LTspice 26.0.1 for Windows
Circuit: Z:\home\mrsilvosa\Personal\Martin\TC2\JupyterNotebook\26TS_2\26TS_2.net
Start Time: Mon Apr 27 20:17:24 2026
solver = Normal
Maximum thread count: 2
tnom = 27
temp = 27
method = trap
.OP point found by inspection.
.OP point found by inspection.
Total elapsed time: 0.167 seconds.

Files loaded:
Z:\home\mrsilvosa\Personal\Martin\TC2\JupyterNotebook\26TS_2\26TS_2.net
C:\users\mrsilvosa\AppData\Local\LTspice\lib\sub\opamp.sub

