LTspice 26.0.1 for Windows
Circuit: Z:\home\mrsilvosa\Personal\Martin\TC2\JupyterNotebook\26TS_2\26TS_4_sintesis_normalizada.net
Start Time: Mon Jun  1 00:20:05 2026
solver = Normal
Maximum thread count: 2
tnom = 27
temp = 27
method = trap
.OP point found by inspection.
.OP point found by inspection.
Total elapsed time: 0.176 seconds.

Files loaded:
Z:\home\mrsilvosa\Personal\Martin\TC2\JupyterNotebook\26TS_2\26TS_4_sintesis_normalizada.net
C:\users\mrsilvosa\AppData\Local\LTspice\lib\sub\opamp.sub

